MACH_NUMBER= 0.85
AOA= 2.5
TARGET_CL= 0.50
BREAKDOWN_FILENAME= forces_breakdown_M0.850.dat
CONV_FILENAME= history_M0.850.csv
SOLUTION_FILENAME= solution_flow_M0.850.csv
RESTART_FILENAME= restart_flow_M0.850.csv
SURFACE_FILENAME= surface_flow_M0.850.csv
VOLUME_FILENAME= m0.850cl0.50
RESTART_SOL= NO
SOLVER= RANS
KIND_TURB_MODEL= SA
MESH_FILENAME= mesh_in.su2
FIXED_CL_MODE= NO
CONV_NUM_METHOD_FLOW= JST
MATH_PROBLEM= DIRECT
READ_BINARY_RESTART= NO
OUTPUT_FILES= (RESTART_ASCII, SURFACE_PARAVIEW_ASCII, PARAVIEW_ASCII)
WRT_FORCES_BREAKDOWN= YES
SIDESLIP_ANGLE= 0.0
FREESTREAM_TEMPERATURE= 288.15
REYNOLDS_NUMBER= 6.5E6
REYNOLDS_LENGTH= 1.0
FREESTREAM_TURBULENCEINTENSITY = 0.001
FREESTREAM_TURB2LAMVISCRATIO = 100.0
% ----------------------------- CL DRIVER DEFINITION ---------------------------%
% Activate fixed lift mode (specify a CL instead of AoA, NO/YES)
%FIXED_CL_MODE= YES
%
% Target coefficient of lift for fixed lift mode (0.80 by default)
%
% Estimation of dCL/dAlpha (0.2 per degree by default)
DCL_DALPHA= 0.2
% Maximum number of iterations between AoA updates
UPDATE_AOA_ITER_LIMIT= 7500
% Number of iterations to evaluate dCL_dAlpha by using finite differences (500 by default)
ITER_DCL_DALPHA= 500
% ---------------------- REFERENCE VALUE DEFINITION ---------------------------%
%
REF_ORIGIN_MOMENT_X = 0.25
REF_ORIGIN_MOMENT_Y = 0.00
REF_ORIGIN_MOMENT_Z = 0.00
REF_LENGTH= 1.0
REF_AREA= 1.0

% -------------------- BOUNDARY CONDITION DEFINITION --------------------------%
%
MARKER_HEATFLUX= ( foil, 0.0 )
MARKER_FAR= ( farfield )
MARKER_PLOTTING= ( foil )
MARKER_MONITORING= ( foil )

% ------------- COMMON PARAMETERS DEFINING THE NUMERICAL METHOD ---------------%
%
NUM_METHOD_GRAD= WEIGHTED_LEAST_SQUARES
CFL_NUMBER= 2.5
CFL_ADAPT= YES
CFL_ADAPT_PARAM= ( 0.5, 1.05, 1.0, 15.0 )
ITER= 149999
LINEAR_SOLVER= FGMRES
LINEAR_SOLVER_PREC= ILU
LINEAR_SOLVER_ERROR= 1E-8
LINEAR_SOLVER_ITER= 12

% -------------------------- MULTIGRID PARAMETERS -----------------------------%
%
MGLEVEL= 0
MGCYCLE= W_CYCLE
MG_PRE_SMOOTH= ( 1, 2, 3, 3 )
MG_POST_SMOOTH= ( 0, 0, 0, 0 )
MG_CORRECTION_SMOOTH= ( 0, 0, 0, 0 )
MG_DAMP_RESTRICTION= 0.95
MG_DAMP_PROLONGATION= 0.95

% -------------------- FLOW NUMERICAL METHOD DEFINITION -----------------------%
%
%CONV_NUM_METHOD_FLOW= JST
VENKAT_LIMITER_COEFF= 0.03
JST_SENSOR_COEFF= ( 0.5, 0.02 )
TIME_DISCRE_FLOW= EULER_IMPLICIT

% -------------------- TURBULENT NUMERICAL METHOD DEFINITION ------------------%
%
CONV_NUM_METHOD_TURB= SCALAR_UPWIND
MUSCL_TURB= NO
SLOPE_LIMITER_TURB= VENKATAKRISHNAN
TIME_DISCRE_TURB= EULER_IMPLICIT

% --------------------------- CONVERGENCE PARAMETERS --------------------------%
CONV_RESIDUAL_MINVAL= -9
CONV_STARTITER= 10
CONV_CAUCHY_ELEMS= 100
CONV_CAUCHY_EPS= 1E-6

% ------------------------- INPUT/OUTPUT INFORMATION --------------------------%
%
MESH_FORMAT= SU2
MESH_OUT_FILENAME= mesh_out.su2
TABULAR_FORMAT= CSV
OUTPUT_WRT_FREQ= 2000
% Screen output fields 
SCREEN_OUTPUT= (INNER_ITER, RMS_DENSITY, RMS_NU_TILDE, LIFT, DRAG,LINSOL_ITER,LINSOL_RESIDUAL,AVG_CFL)
%
% History output groups (use 'SU2_CFD -d <config_file>' to view list of available fields)
HISTORY_OUTPUT= (INNER_ITER, RMS_DENSITY,DRAG,LIFT,MOMENT_Z)
%
% Volume output fields/groups (use 'SU2_CFD -d <config_file>' to view list of available fields)
VOLUME_OUTPUT= (COORDINATES, SOLUTION, PRIMITIVE,VORTEX_IDENTIFICATION)
